data/smartds/Loads.dss
New Load.load_p1ulv22_1 conn=wye bus1=p1ulv22.1 kV=0.12 Vminpu=0.8 Vmaxpu=1.2 model=1 kW=5.39943476758497 kvar=0.5060219487390896 Phases=1 yearly=res_kw_36218_pu

New Load.load_p1ulv22_2 conn=wye bus1=p1ulv22.2 kV=0.12 Vminpu=0.8 Vmaxpu=1.2 model=1 kW=5.39943476758497 kvar=0.5060219487390896 Phases=1 yearly=res_kw_36218_pu

New Load.load_p1ulv23_1 conn=wye bus1=p1ulv23.1 kV=0.12 Vminpu=0.8 Vmaxpu=1.2 model=1 kW=10.554273701809377 kvar=1.0800538191905524 Phases=1 yearly=res_kw_40667_pu

New Load.load_p1ulv23_2 conn=wye bus1=p1ulv23.2 kV=0.12 Vminpu=0.8 Vmaxpu=1.2 model=1 kW=10.554273701809377 kvar=1.0800538191905524 Phases=1 yearly=res_kw_40667_pu

New Load.load_p1ulv24_1 conn=wye bus1=p1ulv24.1 kV=0.12 Vminpu=0.8 Vmaxpu=1.2 model=1 kW=6.710235206256937 kvar=1.7391088910790158 Phases=1 yearly=res_kw_12275_pu

New Load.load_p1ulv24_2 conn=wye bus1=p1ulv24.2 kV=0.12 Vminpu=0.8 Vmaxpu=1.2 model=1 kW=6.710235206256937 kvar=1.7391088910790158 Phases=1 yearly=res_kw_12275_pu

New Load.load_p1ulv25_1 conn=wye bus1=p1ulv25.1 kV=0.12 Vminpu=0.8 Vmaxpu=1.2 model=1 kW=14.503519860037024 kvar=4.22352892117394 Phases=1 yearly=res_kw_21966_pu

New Load.load_p1ulv25_2 conn=wye bus1=p1ulv25.2 kV=0.12 Vminpu=0.8 Vmaxpu=1.2 model=1 kW=14.503519860037024 kvar=4.22352892117394 Phases=1 yearly=res_kw_21966_pu

New Load.load_p1ulv26_1 conn=wye bus1=p1ulv26.1 kV=0.12 Vminpu=0.8 Vmaxpu=1.2 model=1 kW=7.47211462160751 kvar=0.5798347120225763 Phases=1 yearly=res_kw_22226_pu

New Load.load_p1ulv26_2 conn=wye bus1=p1ulv26.2 kV=0.12 Vminpu=0.8 Vmaxpu=1.2 model=1 kW=7.47211462160751 kvar=0.5798347120225763 Phases=1 yearly=res_kw_22226_pu

New Load.load_p1ulv27_1 conn=wye bus1=p1ulv27.1 kV=0.12 Vminpu=0.8 Vmaxpu=1.2 model=1 kW=5.568993148087243 kvar=1.566783723286418 Phases=1 yearly=res_kw_42237_pu

New Load.load_p1ulv27_2 conn=wye bus1=p1ulv27.2 kV=0.12 Vminpu=0.8 Vmaxpu=1.2 model=1 kW=5.568993148087243 kvar=1.566783723286418 Phases=1 yearly=res_kw_42237_pu

New Load.load_p1ulv28_1 conn=wye bus1=p1ulv28.1 kV=0.12 Vminpu=0.8 Vmaxpu=1.2 model=1 kW=7.351597372896507 kvar=1.6197518023605655 Phases=1 yearly=res_kw_9806_pu

New Load.load_p1ulv28_2 conn=wye bus1=p1ulv28.2 kV=0.12 Vminpu=0.8 Vmaxpu=1.2 model=1 kW=7.351597372896507 kvar=1.6197518023605655 Phases=1 yearly=res_kw_9806_pu

New Load.load_p1ulv29_1 conn=wye bus1=p1ulv29.1 kV=0.12 Vminpu=0.8 Vmaxpu=1.2 model=1 kW=9.223390912370887 kvar=2.373779304010492 Phases=1 yearly=res_kw_14006_pu

New Load.load_p1ulv29_2 conn=wye bus1=p1ulv29.2 kV=0.12 Vminpu=0.8 Vmaxpu=1.2 model=1 kW=9.223390912370887 kvar=2.373779304010492 Phases=1 yearly=res_kw_14006_pu

New Load.load_p1ulv30_1 conn=wye bus1=p1ulv30.1 kV=0.12 Vminpu=0.8 Vmaxpu=1.2 model=1 kW=9.603345641252698 kvar=0.4902535664345812 Phases=1 yearly=res_kw_43700_pu

New Load.load_p1ulv30_2 conn=wye bus1=p1ulv30.2 kV=0.12 Vminpu=0.8 Vmaxpu=1.2 model=1 kW=9.603345641252698 kvar=0.4902535664345812 Phases=1 yearly=res_kw_43700_pu

New Load.load_p1ulv31_1 conn=wye bus1=p1ulv31.1 kV=0.12 Vminpu=0.8 Vmaxpu=1.2 model=1 kW=6.029767531614573 kvar=1.816472490460684 Phases=1 yearly=res_kw_16940_pu

New Load.load_p1ulv31_2 conn=wye bus1=p1ulv31.2 kV=0.12 Vminpu=0.8 Vmaxpu=1.2 model=1 kW=6.029767531614573 kvar=1.816472490460684 Phases=1 yearly=res_kw_16940_pu

New Load.load_p1ulv32_1 conn=wye bus1=p1ulv32.1 kV=0.12 Vminpu=0.8 Vmaxpu=1.2 model=1 kW=5.599449492833569 kvar=1.2643495120492882 Phases=1 yearly=res_kw_29395_pu

New Load.load_p1ulv32_2 conn=wye bus1=p1ulv32.2 kV=0.12 Vminpu=0.8 Vmaxpu=1.2 model=1 kW=5.599449492833569 kvar=1.2643495120492882 Phases=1 yearly=res_kw_29395_pu

New Load.load_p1ulv667_1 conn=wye bus1=p1ulv667.1 kV=0.12 Vminpu=0.8 Vmaxpu=1.2 model=1 kW=9.242377572104047 kvar=2.4213230126907757 Phases=1 yearly=res_kw_7720_pu

New Load.load_p1ulv667_2 conn=wye bus1=p1ulv667.2 kV=0.12 Vminpu=0.8 Vmaxpu=1.2 model=1 kW=9.242377572104047 kvar=2.4213230126907757 Phases=1 yearly=res_kw_7720_pu

New Load.load_p1ulv668_1 conn=wye bus1=p1ulv668.1 kV=0.12 Vminpu=0.8 Vmaxpu=1.2 model=1 kW=5.722314177188057 kvar=1.2992744942701828 Phases=1 yearly=res_kw_35369_pu

New Load.load_p1ulv668_2 conn=wye bus1=p1ulv668.2 kV=0.12 Vminpu=0.8 Vmaxpu=1.2 model=1 kW=5.722314177188057 kvar=1.2992744942701828 Phases=1 yearly=res_kw_35369_pu

New Load.load_p1ulv669_1 conn=wye bus1=p1ulv669.1 kV=0.12 Vminpu=0.8 Vmaxpu=1.2 model=1 kW=5.440836406605739 kvar=1.4162288795683158 Phases=1 yearly=res_kw_30062_pu

New Load.load_p1ulv669_2 conn=wye bus1=p1ulv669.2 kV=0.12 Vminpu=0.8 Vmaxpu=1.2 model=1 kW=5.440836406605739 kvar=1.4162288795683158 Phases=1 yearly=res_kw_30062_pu

New Load.load_p1ulv670_1 conn=wye bus1=p1ulv670.1 kV=0.12 Vminpu=0.8 Vmaxpu=1.2 model=1 kW=5.262356427925992 kvar=1.572272268430262 Phases=1 yearly=res_kw_17316_pu

New Load.load_p1ulv670_2 conn=wye bus1=p1ulv670.2 kV=0.12 Vminpu=0.8 Vmaxpu=1.2 model=1 kW=5.262356427925992 kvar=1.572272268430262 Phases=1 yearly=res_kw_17316_pu

New Load.load_p1ulv671_1 conn=wye bus1=p1ulv671.1 kV=0.12 Vminpu=0.8 Vmaxpu=1.2 model=1 kW=8.255782685923563 kvar=0.958826256139906 Phases=1 yearly=res_kw_5334_pu

New Load.load_p1ulv671_2 conn=wye bus1=p1ulv671.2 kV=0.12 Vminpu=0.8 Vmaxpu=1.2 model=1 kW=8.255782685923563 kvar=0.958826256139906 Phases=1 yearly=res_kw_5334_pu

New Load.load_p1ulv672_1 conn=wye bus1=p1ulv672.1 kV=0.12 Vminpu=0.8 Vmaxpu=1.2 model=1 kW=9.242377572104047 kvar=2.4213230126907757 Phases=1 yearly=res_kw_7720_pu

New Load.load_p1ulv672_2 conn=wye bus1=p1ulv672.2 kV=0.12 Vminpu=0.8 Vmaxpu=1.2 model=1 kW=9.242377572104047 kvar=2.4213230126907757 Phases=1 yearly=res_kw_7720_pu

New Load.load_p1ulv682_1 conn=wye bus1=p1ulv682.1 kV=0.12 Vminpu=0.8 Vmaxpu=1.2 model=1 kW=8.720871394100048 kvar=2.539444764185565 Phases=1 yearly=res_kw_11801_pu

New Load.load_p1ulv682_2 conn=wye bus1=p1ulv682.2 kV=0.12 Vminpu=0.8 Vmaxpu=1.2 model=1 kW=8.720871394100048 kvar=2.539444764185565 Phases=1 yearly=res_kw_11801_pu

New Load.load_p1ulv683_1 conn=wye bus1=p1ulv683.1 kV=0.12 Vminpu=0.8 Vmaxpu=1.2 model=1 kW=7.5511968785809085 kvar=1.82357910357102 Phases=1 yearly=res_kw_31650_pu

New Load.load_p1ulv683_2 conn=wye bus1=p1ulv683.2 kV=0.12 Vminpu=0.8 Vmaxpu=1.2 model=1 kW=7.5511968785809085 kvar=1.82357910357102 Phases=1 yearly=res_kw_31650_pu

New Load.load_p1ulv1276_1 conn=wye bus1=p1ulv1276.1 kV=0.12 Vminpu=0.8 Vmaxpu=1.2 model=1 kW=6.963556149984081 kvar=1.643034731369809 Phases=1 yearly=res_kw_14299_pu

New Load.load_p1ulv1276_2 conn=wye bus1=p1ulv1276.2 kV=0.12 Vminpu=0.8 Vmaxpu=1.2 model=1 kW=6.963556149984081 kvar=1.643034731369809 Phases=1 yearly=res_kw_14299_pu

New Load.load_p1ulv1278_1 conn=wye bus1=p1ulv1278.1 kV=0.12 Vminpu=0.8 Vmaxpu=1.2 model=1 kW=8.429072044409537 kvar=2.1259844614320804 Phases=1 yearly=res_kw_30107_pu

New Load.load_p1ulv1278_2 conn=wye bus1=p1ulv1278.2 kV=0.12 Vminpu=0.8 Vmaxpu=1.2 model=1 kW=8.429072044409537 kvar=2.1259844614320804 Phases=1 yearly=res_kw_30107_pu

New Load.load_p1ulv1286_1 conn=wye bus1=p1ulv1286.1 kV=0.12 Vminpu=0.8 Vmaxpu=1.2 model=1 kW=6.357702802119683 kvar=0.4641396361862416 Phases=1 yearly=res_kw_9763_pu

New Load.load_p1ulv1286_2 conn=wye bus1=p1ulv1286.2 kV=0.12 Vminpu=0.8 Vmaxpu=1.2 model=1 kW=6.357702802119683 kvar=0.4641396361862416 Phases=1 yearly=res_kw_9763_pu

New Load.load_p1ulv1287_1 conn=wye bus1=p1ulv1287.1 kV=0.12 Vminpu=0.8 Vmaxpu=1.2 model=1 kW=7.675314693603414 kvar=1.7789010389300253 Phases=1 yearly=res_kw_13226_pu

New Load.load_p1ulv1287_2 conn=wye bus1=p1ulv1287.2 kV=0.12 Vminpu=0.8 Vmaxpu=1.2 model=1 kW=7.675314693603414 kvar=1.7789010389300253 Phases=1 yearly=res_kw_13226_pu

New Load.load_p1ulv1288_1 conn=wye bus1=p1ulv1288.1 kV=0.12 Vminpu=0.8 Vmaxpu=1.2 model=1 kW=8.429072044409537 kvar=2.1259844614320804 Phases=1 yearly=res_kw_30107_pu

New Load.load_p1ulv1288_2 conn=wye bus1=p1ulv1288.2 kV=0.12 Vminpu=0.8 Vmaxpu=1.2 model=1 kW=8.429072044409537 kvar=2.1259844614320804 Phases=1 yearly=res_kw_30107_pu

New Load.load_p1ulv1290_1 conn=wye bus1=p1ulv1290.1 kV=0.12 Vminpu=0.8 Vmaxpu=1.2 model=1 kW=6.733910759325243 kvar=0.4695876451710793 Phases=1 yearly=res_kw_44719_pu

New Load.load_p1ulv1290_2 conn=wye bus1=p1ulv1290.2 kV=0.12 Vminpu=0.8 Vmaxpu=1.2 model=1 kW=6.733910759325243 kvar=0.4695876451710793 Phases=1 yearly=res_kw_44719_pu

New Load.load_p1ulv1291_1 conn=wye bus1=p1ulv1291.1 kV=0.12 Vminpu=0.8 Vmaxpu=1.2 model=1 kW=6.445993177435865 kvar=1.1151525054280045 Phases=1 yearly=res_kw_2002_pu

New Load.load_p1ulv1291_2 conn=wye bus1=p1ulv1291.2 kV=0.12 Vminpu=0.8 Vmaxpu=1.2 model=1 kW=6.445993177435865 kvar=1.1151525054280045 Phases=1 yearly=res_kw_2002_pu

New Load.load_p1ulv1292_1 conn=wye bus1=p1ulv1292.1 kV=0.12 Vminpu=0.8 Vmaxpu=1.2 model=1 kW=8.018671034992787 kvar=0.3409752272726797 Phases=1 yearly=res_kw_42358_pu

New Load.load_p1ulv1292_2 conn=wye bus1=p1ulv1292.2 kV=0.12 Vminpu=0.8 Vmaxpu=1.2 model=1 kW=8.018671034992787 kvar=0.3409752272726797 Phases=1 yearly=res_kw_42358_pu

New Load.load_p1ulv1293_1 conn=wye bus1=p1ulv1293.1 kV=0.12 Vminpu=0.8 Vmaxpu=1.2 model=1 kW=8.026243175336836 kvar=2.147873916814838 Phases=1 yearly=res_kw_9793_pu

New Load.load_p1ulv1293_2 conn=wye bus1=p1ulv1293.2 kV=0.12 Vminpu=0.8 Vmaxpu=1.2 model=1 kW=8.026243175336836 kvar=2.147873916814838 Phases=1 yearly=res_kw_9793_pu

New Load.load_p1ulv1299_1 conn=wye bus1=p1ulv1299.1 kV=0.12 Vminpu=0.8 Vmaxpu=1.2 model=1 kW=7.351597372896507 kvar=1.6197518023605655 Phases=1 yearly=res_kw_9806_pu

New Load.load_p1ulv1299_2 conn=wye bus1=p1ulv1299.2 kV=0.12 Vminpu=0.8 Vmaxpu=1.2 model=1 kW=7.351597372896507 kvar=1.6197518023605655 Phases=1 yearly=res_kw_9806_pu

New Load.load_p1ulv1946_1 conn=wye bus1=p1ulv1946.1 kV=0.12 Vminpu=0.8 Vmaxpu=1.2 model=1 kW=5.561205818798946 kvar=0.7694177299637116 Phases=1 yearly=res_kw_12389_pu

New Load.load_p1ulv1946_2 conn=wye bus1=p1ulv1946.2 kV=0.12 Vminpu=0.8 Vmaxpu=1.2 model=1 kW=5.561205818798946 kvar=0.7694177299637116 Phases=1 yearly=res_kw_12389_pu

New Load.load_p1ulv1948_1 conn=wye bus1=p1ulv1948.1 kV=0.12 Vminpu=0.8 Vmaxpu=1.2 model=1 kW=4.923644079709261 kvar=1.2162147374431964 Phases=1 yearly=res_kw_28547_pu

New Load.load_p1ulv1948_2 conn=wye bus1=p1ulv1948.2 kV=0.12 Vminpu=0.8 Vmaxpu=1.2 model=1 kW=4.923644079709261 kvar=1.2162147374431964 Phases=1 yearly=res_kw_28547_pu

New Load.load_p1ulv1950_1 conn=wye bus1=p1ulv1950.1 kV=0.12 Vminpu=0.8 Vmaxpu=1.2 model=1 kW=8.510326284637467 kvar=1.8038390147537964 Phases=1 yearly=res_kw_14616_pu

New Load.load_p1ulv1950_2 conn=wye bus1=p1ulv1950.2 kV=0.12 Vminpu=0.8 Vmaxpu=1.2 model=1 kW=8.510326284637467 kvar=1.8038390147537964 Phases=1 yearly=res_kw_14616_pu

New Load.load_p1ulv1951_1 conn=wye bus1=p1ulv1951.1 kV=0.12 Vminpu=0.8 Vmaxpu=1.2 model=1 kW=7.32028005781656 kvar=0.8830201449217181 Phases=1 yearly=res_kw_12646_pu

New Load.load_p1ulv1951_2 conn=wye bus1=p1ulv1951.2 kV=0.12 Vminpu=0.8 Vmaxpu=1.2 model=1 kW=7.32028005781656 kvar=0.8830201449217181 Phases=1 yearly=res_kw_12646_pu

New Load.load_p1ulv1955_1 conn=wye bus1=p1ulv1955.1 kV=0.12 Vminpu=0.8 Vmaxpu=1.2 model=1 kW=5.440836406605739 kvar=1.4162288795683158 Phases=1 yearly=res_kw_30062_pu

New Load.load_p1ulv1955_2 conn=wye bus1=p1ulv1955.2 kV=0.12 Vminpu=0.8 Vmaxpu=1.2 model=1 kW=5.440836406605739 kvar=1.4162288795683158 Phases=1 yearly=res_kw_30062_pu

New Load.load_p1ulv1956_1 conn=wye bus1=p1ulv1956.1 kV=0.12 Vminpu=0.8 Vmaxpu=1.2 model=1 kW=8.720871394100048 kvar=2.539444764185565 Phases=1 yearly=res_kw_11801_pu

New Load.load_p1ulv1956_2 conn=wye bus1=p1ulv1956.2 kV=0.12 Vminpu=0.8 Vmaxpu=1.2 model=1 kW=8.720871394100048 kvar=2.539444764185565 Phases=1 yearly=res_kw_11801_pu

New Load.load_p1ulv1957_1 conn=wye bus1=p1ulv1957.1 kV=0.12 Vminpu=0.8 Vmaxpu=1.2 model=1 kW=4.923644079709261 kvar=1.2162147374431964 Phases=1 yearly=res_kw_28547_pu

New Load.load_p1ulv1957_2 conn=wye bus1=p1ulv1957.2 kV=0.12 Vminpu=0.8 Vmaxpu=1.2 model=1 kW=4.923644079709261 kvar=1.2162147374431964 Phases=1 yearly=res_kw_28547_pu

New Load.load_p1ulv1958_1 conn=wye bus1=p1ulv1958.1 kV=0.12 Vminpu=0.8 Vmaxpu=1.2 model=1 kW=4.826030344885995 kvar=1.062790197540727 Phases=1 yearly=res_kw_12082_pu

New Load.load_p1ulv1958_2 conn=wye bus1=p1ulv1958.2 kV=0.12 Vminpu=0.8 Vmaxpu=1.2 model=1 kW=4.826030344885995 kvar=1.062790197540727 Phases=1 yearly=res_kw_12082_pu

New Load.load_p1ulv1959_1 conn=wye bus1=p1ulv1959.1 kV=0.12 Vminpu=0.8 Vmaxpu=1.2 model=1 kW=7.0482264744983825 kvar=0.6101526438053129 Phases=1 yearly=res_kw_11598_pu

New Load.load_p1ulv1959_2 conn=wye bus1=p1ulv1959.2 kV=0.12 Vminpu=0.8 Vmaxpu=1.2 model=1 kW=7.0482264744983825 kvar=0.6101526438053129 Phases=1 yearly=res_kw_11598_pu

New Load.load_p1ulv1963_1 conn=wye bus1=p1ulv1963.1 kV=0.12 Vminpu=0.8 Vmaxpu=1.2 model=1 kW=3.657311403520035 kvar=1.0994858742621236 Phases=1 yearly=res_kw_20072_pu

New Load.load_p1ulv1963_2 conn=wye bus1=p1ulv1963.2 kV=0.12 Vminpu=0.8 Vmaxpu=1.2 model=1 kW=3.657311403520035 kvar=1.0994858742621236 Phases=1 yearly=res_kw_20072_pu

New Load.load_p1ulv2558_1 conn=wye bus1=p1ulv2558.1 kV=0.12 Vminpu=0.8 Vmaxpu=1.2 model=1 kW=10.10869891122199 kvar=1.9959468520843044 Phases=1 yearly=res_kw_38841_pu

New Load.load_p1ulv2558_2 conn=wye bus1=p1ulv2558.2 kV=0.12 Vminpu=0.8 Vmaxpu=1.2 model=1 kW=10.10869891122199 kvar=1.9959468520843044 Phases=1 yearly=res_kw_38841_pu

New Load.load_p1ulv2559_1 conn=wye bus1=p1ulv2559.1 kV=0.12 Vminpu=0.8 Vmaxpu=1.2 model=1 kW=3.0774317144914005 kvar=1.1570654930070994 Phases=1 yearly=res_kw_36295_pu

New Load.load_p1ulv2559_2 conn=wye bus1=p1ulv2559.2 kV=0.12 Vminpu=0.8 Vmaxpu=1.2 model=1 kW=3.0774317144914005 kvar=1.1570654930070994 Phases=1 yearly=res_kw_36295_pu

New Load.load_p1ulv2560_1 conn=wye bus1=p1ulv2560.1 kV=0.12 Vminpu=0.8 Vmaxpu=1.2 model=1 kW=5.877268005569733 kvar=1.4526235642858725 Phases=1 yearly=res_kw_8371_pu

New Load.load_p1ulv2560_2 conn=wye bus1=p1ulv2560.2 kV=0.12 Vminpu=0.8 Vmaxpu=1.2 model=1 kW=5.877268005569733 kvar=1.4526235642858725 Phases=1 yearly=res_kw_8371_pu

New Load.load_p1ulv2561_1 conn=wye bus1=p1ulv2561.1 kV=0.12 Vminpu=0.8 Vmaxpu=1.2 model=1 kW=10.017016540219945 kvar=0.6859082747357867 Phases=1 yearly=res_kw_10264_pu

New Load.load_p1ulv2561_2 conn=wye bus1=p1ulv2561.2 kV=0.12 Vminpu=0.8 Vmaxpu=1.2 model=1 kW=10.017016540219945 kvar=0.6859082747357867 Phases=1 yearly=res_kw_10264_pu

New Load.load_p1ulv2562_1 conn=wye bus1=p1ulv2562.1 kV=0.12 Vminpu=0.8 Vmaxpu=1.2 model=1 kW=5.722314177188057 kvar=1.2992744942701828 Phases=1 yearly=res_kw_35369_pu

New Load.load_p1ulv2562_2 conn=wye bus1=p1ulv2562.2 kV=0.12 Vminpu=0.8 Vmaxpu=1.2 model=1 kW=5.722314177188057 kvar=1.2992744942701828 Phases=1 yearly=res_kw_35369_pu

New Load.load_p1ulv2563_1 conn=wye bus1=p1ulv2563.1 kV=0.12 Vminpu=0.8 Vmaxpu=1.2 model=1 kW=3.1896674138406342 kvar=0.5198196344628838 Phases=1 yearly=res_kw_3541_pu

New Load.load_p1ulv2563_2 conn=wye bus1=p1ulv2563.2 kV=0.12 Vminpu=0.8 Vmaxpu=1.2 model=1 kW=3.1896674138406342 kvar=0.5198196344628838 Phases=1 yearly=res_kw_3541_pu

New Load.load_p1ulv2564_1 conn=wye bus1=p1ulv2564.1 kV=0.12 Vminpu=0.8 Vmaxpu=1.2 model=1 kW=3.1896674138406342 kvar=0.5198196344628838 Phases=1 yearly=res_kw_3541_pu

New Load.load_p1ulv2564_2 conn=wye bus1=p1ulv2564.2 kV=0.12 Vminpu=0.8 Vmaxpu=1.2 model=1 kW=3.1896674138406342 kvar=0.5198196344628838 Phases=1 yearly=res_kw_3541_pu

New Load.load_p1ulv2572_1 conn=wye bus1=p1ulv2572.1 kV=0.12 Vminpu=0.8 Vmaxpu=1.2 model=1 kW=2.891190518317394 kvar=0.87743302889775 Phases=1 yearly=res_kw_32430_pu

New Load.load_p1ulv2572_2 conn=wye bus1=p1ulv2572.2 kV=0.12 Vminpu=0.8 Vmaxpu=1.2 model=1 kW=2.891190518317394 kvar=0.87743302889775 Phases=1 yearly=res_kw_32430_pu

New Load.load_p1ulv2573_1 conn=wye bus1=p1ulv2573.1 kV=0.12 Vminpu=0.8 Vmaxpu=1.2 model=1 kW=6.959326888831919 kvar=0.8689604311373667 Phases=1 yearly=res_kw_18971_pu

New Load.load_p1ulv2573_2 conn=wye bus1=p1ulv2573.2 kV=0.12 Vminpu=0.8 Vmaxpu=1.2 model=1 kW=6.959326888831919 kvar=0.8689604311373667 Phases=1 yearly=res_kw_18971_pu

New Load.load_p1ulv2574_1 conn=wye bus1=p1ulv2574.1 kV=0.12 Vminpu=0.8 Vmaxpu=1.2 model=1 kW=5.262356427925992 kvar=1.572272268430262 Phases=1 yearly=res_kw_17316_pu

New Load.load_p1ulv2574_2 conn=wye bus1=p1ulv2574.2 kV=0.12 Vminpu=0.8 Vmaxpu=1.2 model=1 kW=5.262356427925992 kvar=1.572272268430262 Phases=1 yearly=res_kw_17316_pu

New Load.load_p1ulv2575_1 conn=wye bus1=p1ulv2575.1 kV=0.12 Vminpu=0.8 Vmaxpu=1.2 model=1 kW=6.491039124898843 kvar=1.5262234607277225 Phases=1 yearly=res_kw_12556_pu

New Load.load_p1ulv2575_2 conn=wye bus1=p1ulv2575.2 kV=0.12 Vminpu=0.8 Vmaxpu=1.2 model=1 kW=6.491039124898843 kvar=1.5262234607277225 Phases=1 yearly=res_kw_12556_pu

New Load.load_p1ulv2576_1 conn=wye bus1=p1ulv2576.1 kV=0.12 Vminpu=0.8 Vmaxpu=1.2 model=1 kW=7.906569248704817 kvar=2.106891495486675 Phases=1 yearly=res_kw_42431_pu

New Load.load_p1ulv2576_2 conn=wye bus1=p1ulv2576.2 kV=0.12 Vminpu=0.8 Vmaxpu=1.2 model=1 kW=7.906569248704817 kvar=2.106891495486675 Phases=1 yearly=res_kw_42431_pu

New Load.load_p1ulv2577_1 conn=wye bus1=p1ulv2577.1 kV=0.12 Vminpu=0.8 Vmaxpu=1.2 model=1 kW=7.351597372896507 kvar=1.6197518023605655 Phases=1 yearly=res_kw_9806_pu

New Load.load_p1ulv2577_2 conn=wye bus1=p1ulv2577.2 kV=0.12 Vminpu=0.8 Vmaxpu=1.2 model=1 kW=7.351597372896507 kvar=1.6197518023605655 Phases=1 yearly=res_kw_9806_pu

New Load.load_p1ulv3227_1 conn=wye bus1=p1ulv3227.1 kV=0.12 Vminpu=0.8 Vmaxpu=1.2 model=1 kW=9.42555907363692 kvar=1.0833894393832761 Phases=1 yearly=res_kw_23586_pu

New Load.load_p1ulv3227_2 conn=wye bus1=p1ulv3227.2 kV=0.12 Vminpu=0.8 Vmaxpu=1.2 model=1 kW=9.42555907363692 kvar=1.0833894393832761 Phases=1 yearly=res_kw_23586_pu

New Load.load_p1ulv3228_1 conn=wye bus1=p1ulv3228.1 kV=0.12 Vminpu=0.8 Vmaxpu=1.2 model=1 kW=3.502514600219692 kvar=1.127317670777146 Phases=1 yearly=res_kw_39193_pu

New Load.load_p1ulv3228_2 conn=wye bus1=p1ulv3228.2 kV=0.12 Vminpu=0.8 Vmaxpu=1.2 model=1 kW=3.502514600219692 kvar=1.127317670777146 Phases=1 yearly=res_kw_39193_pu

New Load.load_p1ulv3230_1 conn=wye bus1=p1ulv3230.1 kV=0.12 Vminpu=0.8 Vmaxpu=1.2 model=1 kW=7.5511968785809085 kvar=1.82357910357102 Phases=1 yearly=res_kw_31650_pu

New Load.load_p1ulv3230_2 conn=wye bus1=p1ulv3230.2 kV=0.12 Vminpu=0.8 Vmaxpu=1.2 model=1 kW=7.5511968785809085 kvar=1.82357910357102 Phases=1 yearly=res_kw_31650_pu

New Load.load_p1ulv3232_1 conn=wye bus1=p1ulv3232.1 kV=0.12 Vminpu=0.8 Vmaxpu=1.2 model=1 kW=8.661377328720127 kvar=0.3734326588022163 Phases=1 yearly=res_kw_32783_pu

New Load.load_p1ulv3232_2 conn=wye bus1=p1ulv3232.2 kV=0.12 Vminpu=0.8 Vmaxpu=1.2 model=1 kW=8.661377328720127 kvar=0.3734326588022163 Phases=1 yearly=res_kw_32783_pu

New Load.load_p1ulv3233_1 conn=wye bus1=p1ulv3233.1 kV=0.12 Vminpu=0.8 Vmaxpu=1.2 model=1 kW=6.156836823321777 kvar=1.8380179138736599 Phases=1 yearly=res_kw_21546_pu

New Load.load_p1ulv3233_2 conn=wye bus1=p1ulv3233.2 kV=0.12 Vminpu=0.8 Vmaxpu=1.2 model=1 kW=6.156836823321777 kvar=1.8380179138736599 Phases=1 yearly=res_kw_21546_pu

New Load.load_p1ulv3234_1 conn=wye bus1=p1ulv3234.1 kV=0.12 Vminpu=0.8 Vmaxpu=1.2 model=1 kW=5.686423120195693 kvar=1.6849902182934091 Phases=1 yearly=res_kw_14392_pu

New Load.load_p1ulv3234_2 conn=wye bus1=p1ulv3234.2 kV=0.12 Vminpu=0.8 Vmaxpu=1.2 model=1 kW=5.686423120195693 kvar=1.6849902182934091 Phases=1 yearly=res_kw_14392_pu

New Load.load_p1ulv3241_1 conn=wye bus1=p1ulv3241.1 kV=0.12 Vminpu=0.8 Vmaxpu=1.2 model=1 kW=14.838740006932126 kvar=2.3626474303170695 Phases=1 yearly=res_kw_4187_pu

New Load.load_p1ulv3241_2 conn=wye bus1=p1ulv3241.2 kV=0.12 Vminpu=0.8 Vmaxpu=1.2 model=1 kW=14.838740006932126 kvar=2.3626474303170695 Phases=1 yearly=res_kw_4187_pu

New Load.load_p1ulv3242_1 conn=wye bus1=p1ulv3242.1 kV=0.12 Vminpu=0.8 Vmaxpu=1.2 model=1 kW=3.1896674138406342 kvar=0.5198196344628838 Phases=1 yearly=res_kw_3541_pu

New Load.load_p1ulv3242_2 conn=wye bus1=p1ulv3242.2 kV=0.12 Vminpu=0.8 Vmaxpu=1.2 model=1 kW=3.1896674138406342 kvar=0.5198196344628838 Phases=1 yearly=res_kw_3541_pu

New Load.load_p1ulv3243_1 conn=wye bus1=p1ulv3243.1 kV=0.12 Vminpu=0.8 Vmaxpu=1.2 model=1 kW=4.840560311558584 kvar=1.4249108881456032 Phases=1 yearly=res_kw_15352_pu

New Load.load_p1ulv3243_2 conn=wye bus1=p1ulv3243.2 kV=0.12 Vminpu=0.8 Vmaxpu=1.2 model=1 kW=4.840560311558584 kvar=1.4249108881456032 Phases=1 yearly=res_kw_15352_pu

New Load.load_p1ulv3244_1 conn=wye bus1=p1ulv3244.1 kV=0.12 Vminpu=0.8 Vmaxpu=1.2 model=1 kW=6.956764432229329 kvar=1.3319395944627628 Phases=1 yearly=res_kw_21365_pu

New Load.load_p1ulv3244_2 conn=wye bus1=p1ulv3244.2 kV=0.12 Vminpu=0.8 Vmaxpu=1.2 model=1 kW=6.956764432229329 kvar=1.3319395944627628 Phases=1 yearly=res_kw_21365_pu

New Load.load_p1ulv3245_1 conn=wye bus1=p1ulv3245.1 kV=0.12 Vminpu=0.8 Vmaxpu=1.2 model=1 kW=4.840560311558584 kvar=1.4249108881456032 Phases=1 yearly=res_kw_15352_pu

New Load.load_p1ulv3245_2 conn=wye bus1=p1ulv3245.2 kV=0.12 Vminpu=0.8 Vmaxpu=1.2 model=1 kW=4.840560311558584 kvar=1.4249108881456032 Phases=1 yearly=res_kw_15352_pu

New Load.load_p1ulv3246_1 conn=wye bus1=p1ulv3246.1 kV=0.12 Vminpu=0.8 Vmaxpu=1.2 model=1 kW=8.720871394100048 kvar=2.539444764185565 Phases=1 yearly=res_kw_11801_pu

New Load.load_p1ulv3246_2 conn=wye bus1=p1ulv3246.2 kV=0.12 Vminpu=0.8 Vmaxpu=1.2 model=1 kW=8.720871394100048 kvar=2.539444764185565 Phases=1 yearly=res_kw_11801_pu

New Load.load_p1ulv3247_1 conn=wye bus1=p1ulv3247.1 kV=0.12 Vminpu=0.8 Vmaxpu=1.2 model=1 kW=3.9097971026572957 kvar=0.9949819034459472 Phases=1 yearly=com_kw_41799_pu

New Load.load_p1ulv3247_2 conn=wye bus1=p1ulv3247.2 kV=0.12 Vminpu=0.8 Vmaxpu=1.2 model=1 kW=3.9097971026572957 kvar=0.9949819034459472 Phases=1 yearly=com_kw_41799_pu

New Load.load_p1ulv3248_1 conn=wye bus1=p1ulv3248.1 kV=0.12 Vminpu=0.8 Vmaxpu=1.2 model=1 kW=6.157351265466808 kvar=1.5381655174459505 Phases=1 yearly=res_kw_34236_pu

New Load.load_p1ulv3248_2 conn=wye bus1=p1ulv3248.2 kV=0.12 Vminpu=0.8 Vmaxpu=1.2 model=1 kW=6.157351265466808 kvar=1.5381655174459505 Phases=1 yearly=res_kw_34236_pu

New Load.load_p1ulv3249_1 conn=wye bus1=p1ulv3249.1 kV=0.12 Vminpu=0.8 Vmaxpu=1.2 model=1 kW=8.002291952493916 kvar=2.037346946300993 Phases=1 yearly=res_kw_1256_pu

New Load.load_p1ulv3249_2 conn=wye bus1=p1ulv3249.2 kV=0.12 Vminpu=0.8 Vmaxpu=1.2 model=1 kW=8.002291952493916 kvar=2.037346946300993 Phases=1 yearly=res_kw_1256_pu

New Load.load_p1ulv3250_1 conn=wye bus1=p1ulv3250.1 kV=0.12 Vminpu=0.8 Vmaxpu=1.2 model=1 kW=4.155150624480996 kvar=1.4148012518253867 Phases=1 yearly=res_kw_19084_pu

New Load.load_p1ulv3250_2 conn=wye bus1=p1ulv3250.2 kV=0.12 Vminpu=0.8 Vmaxpu=1.2 model=1 kW=4.155150624480996 kvar=1.4148012518253867 Phases=1 yearly=res_kw_19084_pu

New Load.load_p1ulv3251_1 conn=wye bus1=p1ulv3251.1 kV=0.12 Vminpu=0.8 Vmaxpu=1.2 model=1 kW=8.258877934108721 kvar=1.868068654431537 Phases=1 yearly=res_kw_7151_pu

New Load.load_p1ulv3251_2 conn=wye bus1=p1ulv3251.2 kV=0.12 Vminpu=0.8 Vmaxpu=1.2 model=1 kW=8.258877934108721 kvar=1.868068654431537 Phases=1 yearly=res_kw_7151_pu

New Load.load_p1ulv3862_1 conn=wye bus1=p1ulv3862.1 kV=0.12 Vminpu=0.8 Vmaxpu=1.2 model=1 kW=5.190497681615007 kvar=1.6060618939131366 Phases=1 yearly=res_kw_29890_pu

New Load.load_p1ulv3862_2 conn=wye bus1=p1ulv3862.2 kV=0.12 Vminpu=0.8 Vmaxpu=1.2 model=1 kW=5.190497681615007 kvar=1.6060618939131366 Phases=1 yearly=res_kw_29890_pu

New Load.load_p1ulv3863_1 conn=wye bus1=p1ulv3863.1 kV=0.12 Vminpu=0.8 Vmaxpu=1.2 model=1 kW=9.881507871555566 kvar=4.385860598352961 Phases=1 yearly=res_kw_27486_pu

New Load.load_p1ulv3863_2 conn=wye bus1=p1ulv3863.2 kV=0.12 Vminpu=0.8 Vmaxpu=1.2 model=1 kW=9.881507871555566 kvar=4.385860598352961 Phases=1 yearly=res_kw_27486_pu

New Load.load_p1ulv3864_1 conn=wye bus1=p1ulv3864.1 kV=0.12 Vminpu=0.8 Vmaxpu=1.2 model=1 kW=3.2567153235164477 kvar=1.2359953925376124 Phases=1 yearly=res_kw_31210_pu

New Load.load_p1ulv3864_2 conn=wye bus1=p1ulv3864.2 kV=0.12 Vminpu=0.8 Vmaxpu=1.2 model=1 kW=3.2567153235164477 kvar=1.2359953925376124 Phases=1 yearly=res_kw_31210_pu

New Load.load_p1ulv3865_1 conn=wye bus1=p1ulv3865.1 kV=0.12 Vminpu=0.8 Vmaxpu=1.2 model=1 kW=8.77746350284821 kvar=1.8441672740572115 Phases=1 yearly=res_kw_31058_pu

New Load.load_p1ulv3865_2 conn=wye bus1=p1ulv3865.2 kV=0.12 Vminpu=0.8 Vmaxpu=1.2 model=1 kW=8.77746350284821 kvar=1.8441672740572115 Phases=1 yearly=res_kw_31058_pu

New Load.load_p1ulv3866_1 conn=wye bus1=p1ulv3866.1 kV=0.12 Vminpu=0.8 Vmaxpu=1.2 model=1 kW=12.994615266204395 kvar=2.5395398423951066 Phases=1 yearly=res_kw_5157_pu

New Load.load_p1ulv3866_2 conn=wye bus1=p1ulv3866.2 kV=0.12 Vminpu=0.8 Vmaxpu=1.2 model=1 kW=12.994615266204395 kvar=2.5395398423951066 Phases=1 yearly=res_kw_5157_pu

New Load.load_p1ulv3874_1 conn=wye bus1=p1ulv3874.1 kV=0.12 Vminpu=0.8 Vmaxpu=1.2 model=1 kW=12.33249892309442 kvar=1.059310100828225 Phases=1 yearly=res_kw_2474_pu

New Load.load_p1ulv3874_2 conn=wye bus1=p1ulv3874.2 kV=0.12 Vminpu=0.8 Vmaxpu=1.2 model=1 kW=12.33249892309442 kvar=1.059310100828225 Phases=1 yearly=res_kw_2474_pu

New Load.load_p1ulv3875_1 conn=wye bus1=p1ulv3875.1 kV=0.12 Vminpu=0.8 Vmaxpu=1.2 model=1 kW=11.168304025168293 kvar=0.6030151462896908 Phases=1 yearly=res_kw_13707_pu

New Load.load_p1ulv3875_2 conn=wye bus1=p1ulv3875.2 kV=0.12 Vminpu=0.8 Vmaxpu=1.2 model=1 kW=11.168304025168293 kvar=0.6030151462896908 Phases=1 yearly=res_kw_13707_pu

New Load.load_p1ulv3876_1 conn=wye bus1=p1ulv3876.1 kV=0.12 Vminpu=0.8 Vmaxpu=1.2 model=1 kW=5.877268005569733 kvar=1.4526235642858725 Phases=1 yearly=res_kw_8371_pu

New Load.load_p1ulv3876_2 conn=wye bus1=p1ulv3876.2 kV=0.12 Vminpu=0.8 Vmaxpu=1.2 model=1 kW=5.877268005569733 kvar=1.4526235642858725 Phases=1 yearly=res_kw_8371_pu

New Load.load_p1ulv3878_1 conn=wye bus1=p1ulv3878.1 kV=0.12 Vminpu=0.8 Vmaxpu=1.2 model=1 kW=6.603936078614125 kvar=1.7875068813877917 Phases=1 yearly=res_kw_12427_pu

New Load.load_p1ulv3878_2 conn=wye bus1=p1ulv3878.2 kV=0.12 Vminpu=0.8 Vmaxpu=1.2 model=1 kW=6.603936078614125 kvar=1.7875068813877917 Phases=1 yearly=res_kw_12427_pu

New Load.load_p1ulv3879_1 conn=wye bus1=p1ulv3879.1 kV=0.12 Vminpu=0.8 Vmaxpu=1.2 model=1 kW=6.294249121980917 kvar=1.5302379092394756 Phases=1 yearly=res_kw_29910_pu

New Load.load_p1ulv3879_2 conn=wye bus1=p1ulv3879.2 kV=0.12 Vminpu=0.8 Vmaxpu=1.2 model=1 kW=6.294249121980917 kvar=1.5302379092394756 Phases=1 yearly=res_kw_29910_pu

New Load.load_p1ulv3880_1 conn=wye bus1=p1ulv3880.1 kV=0.12 Vminpu=0.8 Vmaxpu=1.2 model=1 kW=8.427498899440819 kvar=2.053922751041008 Phases=1 yearly=res_kw_3835_pu

New Load.load_p1ulv3880_2 conn=wye bus1=p1ulv3880.2 kV=0.12 Vminpu=0.8 Vmaxpu=1.2 model=1 kW=8.427498899440819 kvar=2.053922751041008 Phases=1 yearly=res_kw_3835_pu

New Load.load_p1ulv3881_1 conn=wye bus1=p1ulv3881.1 kV=0.12 Vminpu=0.8 Vmaxpu=1.2 model=1 kW=4.269245576784838 kvar=0.7207107837981154 Phases=1 yearly=res_kw_42648_pu

New Load.load_p1ulv3881_2 conn=wye bus1=p1ulv3881.2 kV=0.12 Vminpu=0.8 Vmaxpu=1.2 model=1 kW=4.269245576784838 kvar=0.7207107837981154 Phases=1 yearly=res_kw_42648_pu

New Load.load_p1ulv3882_1 conn=wye bus1=p1ulv3882.1 kV=0.12 Vminpu=0.8 Vmaxpu=1.2 model=1 kW=5.262356427925992 kvar=1.572272268430262 Phases=1 yearly=res_kw_17316_pu

New Load.load_p1ulv3882_2 conn=wye bus1=p1ulv3882.2 kV=0.12 Vminpu=0.8 Vmaxpu=1.2 model=1 kW=5.262356427925992 kvar=1.572272268430262 Phases=1 yearly=res_kw_17316_pu

New Load.load_p1ulv3883_1 conn=wye bus1=p1ulv3883.1 kV=0.12 Vminpu=0.8 Vmaxpu=1.2 model=1 kW=10.118668097177784 kvar=0.5735433787936128 Phases=1 yearly=res_kw_9863_pu

New Load.load_p1ulv3883_2 conn=wye bus1=p1ulv3883.2 kV=0.12 Vminpu=0.8 Vmaxpu=1.2 model=1 kW=10.118668097177784 kvar=0.5735433787936128 Phases=1 yearly=res_kw_9863_pu

New Load.load_p1ulv3884_1 conn=wye bus1=p1ulv3884.1 kV=0.12 Vminpu=0.8 Vmaxpu=1.2 model=1 kW=9.881507871555566 kvar=4.385860598352961 Phases=1 yearly=res_kw_27486_pu

New Load.load_p1ulv3884_2 conn=wye bus1=p1ulv3884.2 kV=0.12 Vminpu=0.8 Vmaxpu=1.2 model=1 kW=9.881507871555566 kvar=4.385860598352961 Phases=1 yearly=res_kw_27486_pu

New Load.load_p1ulv3885_1 conn=wye bus1=p1ulv3885.1 kV=0.12 Vminpu=0.8 Vmaxpu=1.2 model=1 kW=5.197438629454625 kvar=0.796321363559186 Phases=1 yearly=res_kw_13152_pu

New Load.load_p1ulv3885_2 conn=wye bus1=p1ulv3885.2 kV=0.12 Vminpu=0.8 Vmaxpu=1.2 model=1 kW=5.197438629454625 kvar=0.796321363559186 Phases=1 yearly=res_kw_13152_pu

New Load.load_p1ulv4456_1 conn=wye bus1=p1ulv4456.1 kV=0.12 Vminpu=0.8 Vmaxpu=1.2 model=1 kW=5.247104812431458 kvar=1.6606938378460832 Phases=1 yearly=res_kw_44365_pu

New Load.load_p1ulv4456_2 conn=wye bus1=p1ulv4456.2 kV=0.12 Vminpu=0.8 Vmaxpu=1.2 model=1 kW=5.247104812431458 kvar=1.6606938378460832 Phases=1 yearly=res_kw_44365_pu

New Load.load_p1ulv4457_1 conn=wye bus1=p1ulv4457.1 kV=0.12 Vminpu=0.8 Vmaxpu=1.2 model=1 kW=5.122239074905752 kvar=0.5296306571629831 Phases=1 yearly=res_kw_6215_pu

New Load.load_p1ulv4457_2 conn=wye bus1=p1ulv4457.2 kV=0.12 Vminpu=0.8 Vmaxpu=1.2 model=1 kW=5.122239074905752 kvar=0.5296306571629831 Phases=1 yearly=res_kw_6215_pu

New Load.load_p1ulv4466_1 conn=wye bus1=p1ulv4466.1 kV=0.12 Vminpu=0.8 Vmaxpu=1.2 model=1 kW=6.683992231880607 kvar=1.9412481841762481 Phases=1 yearly=res_kw_42916_pu

New Load.load_p1ulv4466_2 conn=wye bus1=p1ulv4466.2 kV=0.12 Vminpu=0.8 Vmaxpu=1.2 model=1 kW=6.683992231880607 kvar=1.9412481841762481 Phases=1 yearly=res_kw_42916_pu

New Load.load_p1ulv4467_1 conn=wye bus1=p1ulv4467.1 kV=0.12 Vminpu=0.8 Vmaxpu=1.2 model=1 kW=21.355031518219796 kvar=2.1534556076503777 Phases=1 yearly=res_kw_2128_pu

New Load.load_p1ulv4467_2 conn=wye bus1=p1ulv4467.2 kV=0.12 Vminpu=0.8 Vmaxpu=1.2 model=1 kW=21.355031518219796 kvar=2.1534556076503777 Phases=1 yearly=res_kw_2128_pu

New Load.load_p1ulv4471_1 conn=wye bus1=p1ulv4471.1 kV=0.12 Vminpu=0.8 Vmaxpu=1.2 model=1 kW=7.082339613968027 kvar=2.187459395718673 Phases=1 yearly=com_kw_42852_pu

New Load.load_p1ulv4471_2 conn=wye bus1=p1ulv4471.2 kV=0.12 Vminpu=0.8 Vmaxpu=1.2 model=1 kW=7.082339613968027 kvar=2.187459395718673 Phases=1 yearly=com_kw_42852_pu

New Load.load_p1ulv4472_1 conn=wye bus1=p1ulv4472.1 kV=0.12 Vminpu=0.8 Vmaxpu=1.2 model=1 kW=9.449019302155754 kvar=1.3934296136624567 Phases=1 yearly=res_kw_37095_pu

New Load.load_p1ulv4472_2 conn=wye bus1=p1ulv4472.2 kV=0.12 Vminpu=0.8 Vmaxpu=1.2 model=1 kW=9.449019302155754 kvar=1.3934296136624567 Phases=1 yearly=res_kw_37095_pu

New Load.load_p1ulv4473_1 conn=wye bus1=p1ulv4473.1 kV=0.12 Vminpu=0.8 Vmaxpu=1.2 model=1 kW=4.802229939004579 kvar=1.4340170498990241 Phases=1 yearly=res_kw_30420_pu

New Load.load_p1ulv4473_2 conn=wye bus1=p1ulv4473.2 kV=0.12 Vminpu=0.8 Vmaxpu=1.2 model=1 kW=4.802229939004579 kvar=1.4340170498990241 Phases=1 yearly=res_kw_30420_pu

New Load.load_p1ulv4474_1 conn=wye bus1=p1ulv4474.1 kV=0.12 Vminpu=0.8 Vmaxpu=1.2 model=1 kW=7.351597372896507 kvar=1.6197518023605655 Phases=1 yearly=res_kw_9806_pu

New Load.load_p1ulv4474_2 conn=wye bus1=p1ulv4474.2 kV=0.12 Vminpu=0.8 Vmaxpu=1.2 model=1 kW=7.351597372896507 kvar=1.6197518023605655 Phases=1 yearly=res_kw_9806_pu

New Load.load_p1ulv4475_1 conn=wye bus1=p1ulv4475.1 kV=0.12 Vminpu=0.8 Vmaxpu=1.2 model=1 kW=5.440836406605739 kvar=1.4162288795683158 Phases=1 yearly=res_kw_30062_pu

New Load.load_p1ulv4475_2 conn=wye bus1=p1ulv4475.2 kV=0.12 Vminpu=0.8 Vmaxpu=1.2 model=1 kW=5.440836406605739 kvar=1.4162288795683158 Phases=1 yearly=res_kw_30062_pu

New Load.load_p1ulv4476_1 conn=wye bus1=p1ulv4476.1 kV=0.12 Vminpu=0.8 Vmaxpu=1.2 model=1 kW=3.729048825926311 kvar=0.8558111428133128 Phases=1 yearly=res_kw_311_pu

New Load.load_p1ulv4476_2 conn=wye bus1=p1ulv4476.2 kV=0.12 Vminpu=0.8 Vmaxpu=1.2 model=1 kW=3.729048825926311 kvar=0.8558111428133128 Phases=1 yearly=res_kw_311_pu

New Load.load_p1ulv4477_1 conn=wye bus1=p1ulv4477.1 kV=0.12 Vminpu=0.8 Vmaxpu=1.2 model=1 kW=6.956764432229329 kvar=1.3319395944627628 Phases=1 yearly=res_kw_21365_pu

New Load.load_p1ulv4477_2 conn=wye bus1=p1ulv4477.2 kV=0.12 Vminpu=0.8 Vmaxpu=1.2 model=1 kW=6.956764432229329 kvar=1.3319395944627628 Phases=1 yearly=res_kw_21365_pu

New Load.load_p1ulv4478_1 conn=wye bus1=p1ulv4478.1 kV=0.12 Vminpu=0.8 Vmaxpu=1.2 model=1 kW=7.47211462160751 kvar=0.5798347120225763 Phases=1 yearly=res_kw_22226_pu

New Load.load_p1ulv4478_2 conn=wye bus1=p1ulv4478.2 kV=0.12 Vminpu=0.8 Vmaxpu=1.2 model=1 kW=7.47211462160751 kvar=0.5798347120225763 Phases=1 yearly=res_kw_22226_pu

New Load.load_p1ulv4479_1 conn=wye bus1=p1ulv4479.1 kV=0.12 Vminpu=0.8 Vmaxpu=1.2 model=1 kW=11.052727791383319 kvar=0.697642039858908 Phases=1 yearly=res_kw_2691_pu

New Load.load_p1ulv4479_2 conn=wye bus1=p1ulv4479.2 kV=0.12 Vminpu=0.8 Vmaxpu=1.2 model=1 kW=11.052727791383319 kvar=0.697642039858908 Phases=1 yearly=res_kw_2691_pu

New Load.load_p1ulv4480_1 conn=wye bus1=p1ulv4480.1 kV=0.12 Vminpu=0.8 Vmaxpu=1.2 model=1 kW=5.6169074043914575 kvar=1.0183017372764251 Phases=1 yearly=res_kw_15299_pu

New Load.load_p1ulv4480_2 conn=wye bus1=p1ulv4480.2 kV=0.12 Vminpu=0.8 Vmaxpu=1.2 model=1 kW=5.6169074043914575 kvar=1.0183017372764251 Phases=1 yearly=res_kw_15299_pu

New Load.load_p1ulv5069_1 conn=wye bus1=p1ulv5069.1 kV=0.12 Vminpu=0.8 Vmaxpu=1.2 model=1 kW=8.77746350284821 kvar=1.8441672740572115 Phases=1 yearly=res_kw_31058_pu

New Load.load_p1ulv5069_2 conn=wye bus1=p1ulv5069.2 kV=0.12 Vminpu=0.8 Vmaxpu=1.2 model=1 kW=8.77746350284821 kvar=1.8441672740572115 Phases=1 yearly=res_kw_31058_pu

New Load.load_p1ulv5070_1 conn=wye bus1=p1ulv5070.1 kV=0.12 Vminpu=0.8 Vmaxpu=1.2 model=1 kW=3.168667040917237 kvar=0.7100239732815434 Phases=1 yearly=res_kw_25958_pu

New Load.load_p1ulv5070_2 conn=wye bus1=p1ulv5070.2 kV=0.12 Vminpu=0.8 Vmaxpu=1.2 model=1 kW=3.168667040917237 kvar=0.7100239732815434 Phases=1 yearly=res_kw_25958_pu

New Load.load_p1ulv5077_1 conn=wye bus1=p1ulv5077.1 kV=0.12 Vminpu=0.8 Vmaxpu=1.2 model=1 kW=6.156836823321777 kvar=1.8380179138736599 Phases=1 yearly=res_kw_21546_pu

New Load.load_p1ulv5077_2 conn=wye bus1=p1ulv5077.2 kV=0.12 Vminpu=0.8 Vmaxpu=1.2 model=1 kW=6.156836823321777 kvar=1.8380179138736599 Phases=1 yearly=res_kw_21546_pu

New Load.load_p1ulv5078_1 conn=wye bus1=p1ulv5078.1 kV=0.12 Vminpu=0.8 Vmaxpu=1.2 model=1 kW=3.7767855647958513 kvar=1.257352486283192 Phases=1 yearly=res_kw_38728_pu

New Load.load_p1ulv5078_2 conn=wye bus1=p1ulv5078.2 kV=0.12 Vminpu=0.8 Vmaxpu=1.2 model=1 kW=3.7767855647958513 kvar=1.257352486283192 Phases=1 yearly=res_kw_38728_pu

New Load.load_p1ulv5079_1 conn=wye bus1=p1ulv5079.1 kV=0.12 Vminpu=0.8 Vmaxpu=1.2 model=1 kW=5.607485902690001 kvar=1.5152589575027346 Phases=1 yearly=res_kw_10611_pu

New Load.load_p1ulv5079_2 conn=wye bus1=p1ulv5079.2 kV=0.12 Vminpu=0.8 Vmaxpu=1.2 model=1 kW=5.607485902690001 kvar=1.5152589575027346 Phases=1 yearly=res_kw_10611_pu

New Load.load_p1ulv5080_1 conn=wye bus1=p1ulv5080.1 kV=0.12 Vminpu=0.8 Vmaxpu=1.2 model=1 kW=6.445993177435865 kvar=1.1151525054280045 Phases=1 yearly=res_kw_2002_pu

New Load.load_p1ulv5080_2 conn=wye bus1=p1ulv5080.2 kV=0.12 Vminpu=0.8 Vmaxpu=1.2 model=1 kW=6.445993177435865 kvar=1.1151525054280045 Phases=1 yearly=res_kw_2002_pu

New Load.load_p1ulv5081_1 conn=wye bus1=p1ulv5081.1 kV=0.12 Vminpu=0.8 Vmaxpu=1.2 model=1 kW=5.722314177188057 kvar=1.2992744942701828 Phases=1 yearly=res_kw_35369_pu

New Load.load_p1ulv5081_2 conn=wye bus1=p1ulv5081.2 kV=0.12 Vminpu=0.8 Vmaxpu=1.2 model=1 kW=5.722314177188057 kvar=1.2992744942701828 Phases=1 yearly=res_kw_35369_pu

New Load.load_p1ulv5082_1 conn=wye bus1=p1ulv5082.1 kV=0.12 Vminpu=0.8 Vmaxpu=1.2 model=1 kW=8.026243175336836 kvar=2.147873916814838 Phases=1 yearly=res_kw_9793_pu

New Load.load_p1ulv5082_2 conn=wye bus1=p1ulv5082.2 kV=0.12 Vminpu=0.8 Vmaxpu=1.2 model=1 kW=8.026243175336836 kvar=2.147873916814838 Phases=1 yearly=res_kw_9793_pu

New Load.load_p1ulv5083_1 conn=wye bus1=p1ulv5083.1 kV=0.12 Vminpu=0.8 Vmaxpu=1.2 model=1 kW=3.4304055227632637 kvar=1.2627948271915204 Phases=1 yearly=res_kw_888_pu

New Load.load_p1ulv5083_2 conn=wye bus1=p1ulv5083.2 kV=0.12 Vminpu=0.8 Vmaxpu=1.2 model=1 kW=3.4304055227632637 kvar=1.2627948271915204 Phases=1 yearly=res_kw_888_pu

New Load.load_p1ulv5720_1 conn=wye bus1=p1ulv5720.1 kV=0.12 Vminpu=0.8 Vmaxpu=1.2 model=1 kW=7.394167157679983 kvar=1.848012013217206 Phases=1 yearly=res_kw_793_pu

New Load.load_p1ulv5720_2 conn=wye bus1=p1ulv5720.2 kV=0.12 Vminpu=0.8 Vmaxpu=1.2 model=1 kW=7.394167157679983 kvar=1.848012013217206 Phases=1 yearly=res_kw_793_pu

New Load.load_p1ulv5725_1 conn=wye bus1=p1ulv5725.1 kV=0.12 Vminpu=0.8 Vmaxpu=1.2 model=1 kW=6.886770194390322 kvar=1.8049006983122324 Phases=1 yearly=res_kw_42676_pu

New Load.load_p1ulv5725_2 conn=wye bus1=p1ulv5725.2 kV=0.12 Vminpu=0.8 Vmaxpu=1.2 model=1 kW=6.886770194390322 kvar=1.8049006983122324 Phases=1 yearly=res_kw_42676_pu

New Load.load_p1ulv5735_1 conn=wye bus1=p1ulv5735.1 kV=0.12 Vminpu=0.8 Vmaxpu=1.2 model=1 kW=11.052727791383319 kvar=0.697642039858908 Phases=1 yearly=res_kw_2691_pu

New Load.load_p1ulv5735_2 conn=wye bus1=p1ulv5735.2 kV=0.12 Vminpu=0.8 Vmaxpu=1.2 model=1 kW=11.052727791383319 kvar=0.697642039858908 Phases=1 yearly=res_kw_2691_pu

New Load.load_p1ulv5736_1 conn=wye bus1=p1ulv5736.1 kV=0.12 Vminpu=0.8 Vmaxpu=1.2 model=1 kW=10.10869891122199 kvar=1.9959468520843044 Phases=1 yearly=res_kw_38841_pu

New Load.load_p1ulv5736_2 conn=wye bus1=p1ulv5736.2 kV=0.12 Vminpu=0.8 Vmaxpu=1.2 model=1 kW=10.10869891122199 kvar=1.9959468520843044 Phases=1 yearly=res_kw_38841_pu

New Load.load_p1ulv5737_1 conn=wye bus1=p1ulv5737.1 kV=0.12 Vminpu=0.8 Vmaxpu=1.2 model=1 kW=3.729048825926311 kvar=0.8558111428133128 Phases=1 yearly=res_kw_311_pu

New Load.load_p1ulv5737_2 conn=wye bus1=p1ulv5737.2 kV=0.12 Vminpu=0.8 Vmaxpu=1.2 model=1 kW=3.729048825926311 kvar=0.8558111428133128 Phases=1 yearly=res_kw_311_pu

New Load.load_p1ulv5738_1 conn=wye bus1=p1ulv5738.1 kV=0.12 Vminpu=0.8 Vmaxpu=1.2 model=1 kW=12.669753821148756 kvar=2.5421312330032215 Phases=1 yearly=res_kw_29764_pu

New Load.load_p1ulv5738_2 conn=wye bus1=p1ulv5738.2 kV=0.12 Vminpu=0.8 Vmaxpu=1.2 model=1 kW=12.669753821148756 kvar=2.5421312330032215 Phases=1 yearly=res_kw_29764_pu

New Load.load_p1ulv5739_1 conn=wye bus1=p1ulv5739.1 kV=0.12 Vminpu=0.8 Vmaxpu=1.2 model=1 kW=5.722314177188057 kvar=1.2992744942701828 Phases=1 yearly=res_kw_35369_pu

New Load.load_p1ulv5739_2 conn=wye bus1=p1ulv5739.2 kV=0.12 Vminpu=0.8 Vmaxpu=1.2 model=1 kW=5.722314177188057 kvar=1.2992744942701828 Phases=1 yearly=res_kw_35369_pu

New Load.load_p1ulv5741_1 conn=wye bus1=p1ulv5741.1 kV=0.12 Vminpu=0.8 Vmaxpu=1.2 model=1 kW=3.168667040917237 kvar=0.7100239732815434 Phases=1 yearly=res_kw_25958_pu

New Load.load_p1ulv5741_2 conn=wye bus1=p1ulv5741.2 kV=0.12 Vminpu=0.8 Vmaxpu=1.2 model=1 kW=3.168667040917237 kvar=0.7100239732815434 Phases=1 yearly=res_kw_25958_pu

New Load.load_p1ulv5742_1 conn=wye bus1=p1ulv5742.1 kV=0.12 Vminpu=0.8 Vmaxpu=1.2 model=1 kW=8.429072044409537 kvar=2.1259844614320804 Phases=1 yearly=res_kw_30107_pu

New Load.load_p1ulv5742_2 conn=wye bus1=p1ulv5742.2 kV=0.12 Vminpu=0.8 Vmaxpu=1.2 model=1 kW=8.429072044409537 kvar=2.1259844614320804 Phases=1 yearly=res_kw_30107_pu

New Load.load_p1ulv5743_1 conn=wye bus1=p1ulv5743.1 kV=0.12 Vminpu=0.8 Vmaxpu=1.2 model=1 kW=9.242377572104047 kvar=2.4213230126907757 Phases=1 yearly=res_kw_7720_pu

New Load.load_p1ulv5743_2 conn=wye bus1=p1ulv5743.2 kV=0.12 Vminpu=0.8 Vmaxpu=1.2 model=1 kW=9.242377572104047 kvar=2.4213230126907757 Phases=1 yearly=res_kw_7720_pu

New Load.load_p1ulv5745_1 conn=wye bus1=p1ulv5745.1 kV=0.12 Vminpu=0.8 Vmaxpu=1.2 model=1 kW=3.7074306096658614 kvar=1.2076561858976878 Phases=1 yearly=res_kw_29794_pu

New Load.load_p1ulv5745_2 conn=wye bus1=p1ulv5745.2 kV=0.12 Vminpu=0.8 Vmaxpu=1.2 model=1 kW=3.7074306096658614 kvar=1.2076561858976878 Phases=1 yearly=res_kw_29794_pu

New Load.load_p1ulv6375_1 conn=wye bus1=p1ulv6375.1 kV=0.12 Vminpu=0.8 Vmaxpu=1.2 model=1 kW=6.947738493782757 kvar=1.6971912361578505 Phases=1 yearly=res_kw_21712_pu

New Load.load_p1ulv6375_2 conn=wye bus1=p1ulv6375.2 kV=0.12 Vminpu=0.8 Vmaxpu=1.2 model=1 kW=6.947738493782757 kvar=1.6971912361578505 Phases=1 yearly=res_kw_21712_pu

New Load.load_p1ulv6376_1 conn=wye bus1=p1ulv6376.1 kV=0.12 Vminpu=0.8 Vmaxpu=1.2 model=1 kW=3.4304055227632637 kvar=1.2627948271915204 Phases=1 yearly=res_kw_888_pu

New Load.load_p1ulv6376_2 conn=wye bus1=p1ulv6376.2 kV=0.12 Vminpu=0.8 Vmaxpu=1.2 model=1 kW=3.4304055227632637 kvar=1.2627948271915204 Phases=1 yearly=res_kw_888_pu

New Load.load_p1ulv6377_1 conn=wye bus1=p1ulv6377.1 kV=0.12 Vminpu=0.8 Vmaxpu=1.2 model=1 kW=5.8816580883738325 kvar=1.6902750473992083 Phases=1 yearly=res_kw_1409_pu

New Load.load_p1ulv6377_2 conn=wye bus1=p1ulv6377.2 kV=0.12 Vminpu=0.8 Vmaxpu=1.2 model=1 kW=5.8816580883738325 kvar=1.6902750473992083 Phases=1 yearly=res_kw_1409_pu

New Load.load_p1ulv6378_1 conn=wye bus1=p1ulv6378.1 kV=0.12 Vminpu=0.8 Vmaxpu=1.2 model=1 kW=5.190497681615007 kvar=1.6060618939131366 Phases=1 yearly=res_kw_29890_pu

New Load.load_p1ulv6378_2 conn=wye bus1=p1ulv6378.2 kV=0.12 Vminpu=0.8 Vmaxpu=1.2 model=1 kW=5.190497681615007 kvar=1.6060618939131366 Phases=1 yearly=res_kw_29890_pu

New Load.load_p1ulv6380_1 conn=wye bus1=p1ulv6380.1 kV=0.12 Vminpu=0.8 Vmaxpu=1.2 model=1 kW=6.445993177435865 kvar=1.1151525054280045 Phases=1 yearly=res_kw_2002_pu

New Load.load_p1ulv6380_2 conn=wye bus1=p1ulv6380.2 kV=0.12 Vminpu=0.8 Vmaxpu=1.2 model=1 kW=6.445993177435865 kvar=1.1151525054280045 Phases=1 yearly=res_kw_2002_pu

New Load.load_p1ulv6387_1 conn=wye bus1=p1ulv6387.1 kV=0.12 Vminpu=0.8 Vmaxpu=1.2 model=1 kW=6.523692499771093 kvar=1.7131245007196503 Phases=1 yearly=res_kw_20815_pu

New Load.load_p1ulv6387_2 conn=wye bus1=p1ulv6387.2 kV=0.12 Vminpu=0.8 Vmaxpu=1.2 model=1 kW=6.523692499771093 kvar=1.7131245007196503 Phases=1 yearly=res_kw_20815_pu

New Load.load_p1ulv6388_1 conn=wye bus1=p1ulv6388.1 kV=0.12 Vminpu=0.8 Vmaxpu=1.2 model=1 kW=5.587155957056288 kvar=0.5777226702996038 Phases=1 yearly=res_kw_10477_pu

New Load.load_p1ulv6388_2 conn=wye bus1=p1ulv6388.2 kV=0.12 Vminpu=0.8 Vmaxpu=1.2 model=1 kW=5.587155957056288 kvar=0.5777226702996038 Phases=1 yearly=res_kw_10477_pu

New Load.load_p1ulv6389_1 conn=wye bus1=p1ulv6389.1 kV=0.12 Vminpu=0.8 Vmaxpu=1.2 model=1 kW=9.621963247118918 kvar=1.1374558583504308 Phases=1 yearly=res_kw_42564_pu

New Load.load_p1ulv6389_2 conn=wye bus1=p1ulv6389.2 kV=0.12 Vminpu=0.8 Vmaxpu=1.2 model=1 kW=9.621963247118918 kvar=1.1374558583504308 Phases=1 yearly=res_kw_42564_pu

New Load.load_p1ulv6390_1 conn=wye bus1=p1ulv6390.1 kV=0.12 Vminpu=0.8 Vmaxpu=1.2 model=1 kW=3.1896674138406342 kvar=0.5198196344628838 Phases=1 yearly=res_kw_3541_pu

New Load.load_p1ulv6390_2 conn=wye bus1=p1ulv6390.2 kV=0.12 Vminpu=0.8 Vmaxpu=1.2 model=1 kW=3.1896674138406342 kvar=0.5198196344628838 Phases=1 yearly=res_kw_3541_pu

New Load.load_p1ulv6391_1 conn=wye bus1=p1ulv6391.1 kV=0.12 Vminpu=0.8 Vmaxpu=1.2 model=1 kW=4.915007351197137 kvar=1.7289118976550264 Phases=1 yearly=res_kw_4772_pu

New Load.load_p1ulv6391_2 conn=wye bus1=p1ulv6391.2 kV=0.12 Vminpu=0.8 Vmaxpu=1.2 model=1 kW=4.915007351197137 kvar=1.7289118976550264 Phases=1 yearly=res_kw_4772_pu

New Load.load_p1ulv6392_1 conn=wye bus1=p1ulv6392.1 kV=0.12 Vminpu=0.8 Vmaxpu=1.2 model=1 kW=8.255782685923563 kvar=0.958826256139906 Phases=1 yearly=res_kw_5334_pu

New Load.load_p1ulv6392_2 conn=wye bus1=p1ulv6392.2 kV=0.12 Vminpu=0.8 Vmaxpu=1.2 model=1 kW=8.255782685923563 kvar=0.958826256139906 Phases=1 yearly=res_kw_5334_pu

New Load.load_p1ulv6393_1 conn=wye bus1=p1ulv6393.1 kV=0.12 Vminpu=0.8 Vmaxpu=1.2 model=1 kW=5.816296097495637 kvar=1.6311776992558646 Phases=1 yearly=res_kw_12239_pu

New Load.load_p1ulv6393_2 conn=wye bus1=p1ulv6393.2 kV=0.12 Vminpu=0.8 Vmaxpu=1.2 model=1 kW=5.816296097495637 kvar=1.6311776992558646 Phases=1 yearly=res_kw_12239_pu

New Load.load_p1ulv6394_1 conn=wye bus1=p1ulv6394.1 kV=0.12 Vminpu=0.8 Vmaxpu=1.2 model=1 kW=3.7028635891776585 kvar=1.5583150513160324 Phases=1 yearly=res_kw_22523_pu

New Load.load_p1ulv6394_2 conn=wye bus1=p1ulv6394.2 kV=0.12 Vminpu=0.8 Vmaxpu=1.2 model=1 kW=3.7028635891776585 kvar=1.5583150513160324 Phases=1 yearly=res_kw_22523_pu

New Load.load_p1ulv6999_1 conn=wye bus1=p1ulv6999.1 kV=0.12 Vminpu=0.8 Vmaxpu=1.2 model=1 kW=6.683992231880607 kvar=1.9412481841762481 Phases=1 yearly=res_kw_42916_pu

New Load.load_p1ulv6999_2 conn=wye bus1=p1ulv6999.2 kV=0.12 Vminpu=0.8 Vmaxpu=1.2 model=1 kW=6.683992231880607 kvar=1.9412481841762481 Phases=1 yearly=res_kw_42916_pu

New Load.load_p1ulv7000_1 conn=wye bus1=p1ulv7000.1 kV=0.12 Vminpu=0.8 Vmaxpu=1.2 model=1 kW=8.258877934108721 kvar=1.868068654431537 Phases=1 yearly=res_kw_7151_pu

New Load.load_p1ulv7000_2 conn=wye bus1=p1ulv7000.2 kV=0.12 Vminpu=0.8 Vmaxpu=1.2 model=1 kW=8.258877934108721 kvar=1.868068654431537 Phases=1 yearly=res_kw_7151_pu

New Load.load_p1ulv7009_1 conn=wye bus1=p1ulv7009.1 kV=0.12 Vminpu=0.8 Vmaxpu=1.2 model=1 kW=5.3272244456386755 kvar=1.0176685201785127 Phases=1 yearly=res_kw_29673_pu

New Load.load_p1ulv7009_2 conn=wye bus1=p1ulv7009.2 kV=0.12 Vminpu=0.8 Vmaxpu=1.2 model=1 kW=5.3272244456386755 kvar=1.0176685201785127 Phases=1 yearly=res_kw_29673_pu

New Load.load_p1ulv7012_1 conn=wye bus1=p1ulv7012.1 kV=0.12 Vminpu=0.8 Vmaxpu=1.2 model=1 kW=18.595095473762182 kvar=1.518816861579196 Phases=1 yearly=res_kw_34488_pu

New Load.load_p1ulv7012_2 conn=wye bus1=p1ulv7012.2 kV=0.12 Vminpu=0.8 Vmaxpu=1.2 model=1 kW=18.595095473762182 kvar=1.518816861579196 Phases=1 yearly=res_kw_34488_pu

New Load.load_p1ulv7013_1 conn=wye bus1=p1ulv7013.1 kV=0.12 Vminpu=0.8 Vmaxpu=1.2 model=1 kW=3.9097971026572957 kvar=0.9949819034459472 Phases=1 yearly=com_kw_41799_pu

New Load.load_p1ulv7013_2 conn=wye bus1=p1ulv7013.2 kV=0.12 Vminpu=0.8 Vmaxpu=1.2 model=1 kW=3.9097971026572957 kvar=0.9949819034459472 Phases=1 yearly=com_kw_41799_pu

New Load.load_p1ulv7014_1 conn=wye bus1=p1ulv7014.1 kV=0.12 Vminpu=0.8 Vmaxpu=1.2 model=1 kW=9.195335143401175 kvar=1.3209371616149572 Phases=1 yearly=res_kw_40179_pu

New Load.load_p1ulv7014_2 conn=wye bus1=p1ulv7014.2 kV=0.12 Vminpu=0.8 Vmaxpu=1.2 model=1 kW=9.195335143401175 kvar=1.3209371616149572 Phases=1 yearly=res_kw_40179_pu

New Load.load_p1ulv7015_1 conn=wye bus1=p1ulv7015.1 kV=0.12 Vminpu=0.8 Vmaxpu=1.2 model=1 kW=7.47211462160751 kvar=0.5798347120225763 Phases=1 yearly=res_kw_22226_pu

New Load.load_p1ulv7015_2 conn=wye bus1=p1ulv7015.2 kV=0.12 Vminpu=0.8 Vmaxpu=1.2 model=1 kW=7.47211462160751 kvar=0.5798347120225763 Phases=1 yearly=res_kw_22226_pu

New Load.load_p1ulv7016_1 conn=wye bus1=p1ulv7016.1 kV=0.12 Vminpu=0.8 Vmaxpu=1.2 model=1 kW=6.486023598463722 kvar=1.5498387086753778 Phases=1 yearly=res_kw_16275_pu

New Load.load_p1ulv7016_2 conn=wye bus1=p1ulv7016.2 kV=0.12 Vminpu=0.8 Vmaxpu=1.2 model=1 kW=6.486023598463722 kvar=1.5498387086753778 Phases=1 yearly=res_kw_16275_pu

New Load.load_p1ulv7639_1 conn=wye bus1=p1ulv7639.1 kV=0.12 Vminpu=0.8 Vmaxpu=1.2 model=1 kW=8.429072044409537 kvar=2.1259844614320804 Phases=1 yearly=res_kw_30107_pu

New Load.load_p1ulv7639_2 conn=wye bus1=p1ulv7639.2 kV=0.12 Vminpu=0.8 Vmaxpu=1.2 model=1 kW=8.429072044409537 kvar=2.1259844614320804 Phases=1 yearly=res_kw_30107_pu

New Load.load_p1ulv7640_1 conn=wye bus1=p1ulv7640.1 kV=0.12 Vminpu=0.8 Vmaxpu=1.2 model=1 kW=2.0636088291594232 kvar=0.8953994956640475 Phases=1 yearly=res_kw_42808_pu

New Load.load_p1ulv7640_2 conn=wye bus1=p1ulv7640.2 kV=0.12 Vminpu=0.8 Vmaxpu=1.2 model=1 kW=2.0636088291594232 kvar=0.8953994956640475 Phases=1 yearly=res_kw_42808_pu

New Load.load_p1ulv7642_1 conn=wye bus1=p1ulv7642.1 kV=0.12 Vminpu=0.8 Vmaxpu=1.2 model=1 kW=5.262356427925992 kvar=1.572272268430262 Phases=1 yearly=res_kw_17316_pu

New Load.load_p1ulv7642_2 conn=wye bus1=p1ulv7642.2 kV=0.12 Vminpu=0.8 Vmaxpu=1.2 model=1 kW=5.262356427925992 kvar=1.572272268430262 Phases=1 yearly=res_kw_17316_pu

New Load.load_p1ulv7644_1 conn=wye bus1=p1ulv7644.1 kV=0.12 Vminpu=0.8 Vmaxpu=1.2 model=1 kW=3.0774317144914005 kvar=1.1570654930070994 Phases=1 yearly=res_kw_36295_pu

New Load.load_p1ulv7644_2 conn=wye bus1=p1ulv7644.2 kV=0.12 Vminpu=0.8 Vmaxpu=1.2 model=1 kW=3.0774317144914005 kvar=1.1570654930070994 Phases=1 yearly=res_kw_36295_pu

New Load.load_p1ulv7650_1 conn=wye bus1=p1ulv7650.1 kV=0.12 Vminpu=0.8 Vmaxpu=1.2 model=1 kW=8.313549303686372 kvar=2.058183009074386 Phases=1 yearly=res_kw_44186_pu

New Load.load_p1ulv7650_2 conn=wye bus1=p1ulv7650.2 kV=0.12 Vminpu=0.8 Vmaxpu=1.2 model=1 kW=8.313549303686372 kvar=2.058183009074386 Phases=1 yearly=res_kw_44186_pu

New Load.load_p1ulv7651_1 conn=wye bus1=p1ulv7651.1 kV=0.12 Vminpu=0.8 Vmaxpu=1.2 model=1 kW=6.326334244841513 kvar=0.7046113794826091 Phases=1 yearly=res_kw_4861_pu

New Load.load_p1ulv7651_2 conn=wye bus1=p1ulv7651.2 kV=0.12 Vminpu=0.8 Vmaxpu=1.2 model=1 kW=6.326334244841513 kvar=0.7046113794826091 Phases=1 yearly=res_kw_4861_pu

New Load.load_p1ulv7652_1 conn=wye bus1=p1ulv7652.1 kV=0.12 Vminpu=0.8 Vmaxpu=1.2 model=1 kW=8.429072044409537 kvar=2.1259844614320804 Phases=1 yearly=res_kw_30107_pu

New Load.load_p1ulv7652_2 conn=wye bus1=p1ulv7652.2 kV=0.12 Vminpu=0.8 Vmaxpu=1.2 model=1 kW=8.429072044409537 kvar=2.1259844614320804 Phases=1 yearly=res_kw_30107_pu

New Load.load_p1ulv7653_1 conn=wye bus1=p1ulv7653.1 kV=0.12 Vminpu=0.8 Vmaxpu=1.2 model=1 kW=3.0774317144914005 kvar=1.1570654930070994 Phases=1 yearly=res_kw_36295_pu

New Load.load_p1ulv7653_2 conn=wye bus1=p1ulv7653.2 kV=0.12 Vminpu=0.8 Vmaxpu=1.2 model=1 kW=3.0774317144914005 kvar=1.1570654930070994 Phases=1 yearly=res_kw_36295_pu

New Load.load_p1ulv8238_1 conn=wye bus1=p1ulv8238.1 kV=0.12 Vminpu=0.8 Vmaxpu=1.2 model=1 kW=3.547115627800744 kvar=0.82523497422597 Phases=1 yearly=res_kw_8570_pu

New Load.load_p1ulv8238_2 conn=wye bus1=p1ulv8238.2 kV=0.12 Vminpu=0.8 Vmaxpu=1.2 model=1 kW=3.547115627800744 kvar=0.82523497422597 Phases=1 yearly=res_kw_8570_pu

New Load.load_p1ulv8239_1 conn=wye bus1=p1ulv8239.1 kV=0.12 Vminpu=0.8 Vmaxpu=1.2 model=1 kW=4.457065594701622 kvar=1.0476251323844024 Phases=1 yearly=res_kw_4116_pu

New Load.load_p1ulv8239_2 conn=wye bus1=p1ulv8239.2 kV=0.12 Vminpu=0.8 Vmaxpu=1.2 model=1 kW=4.457065594701622 kvar=1.0476251323844024 Phases=1 yearly=res_kw_4116_pu

New Load.load_p1ulv8245_1 conn=wye bus1=p1ulv8245.1 kV=0.12 Vminpu=0.8 Vmaxpu=1.2 model=1 kW=6.523692499771093 kvar=1.7131245007196503 Phases=1 yearly=res_kw_20815_pu

New Load.load_p1ulv8245_2 conn=wye bus1=p1ulv8245.2 kV=0.12 Vminpu=0.8 Vmaxpu=1.2 model=1 kW=6.523692499771093 kvar=1.7131245007196503 Phases=1 yearly=res_kw_20815_pu

New Load.load_p1ulv8246_1 conn=wye bus1=p1ulv8246.1 kV=0.12 Vminpu=0.8 Vmaxpu=1.2 model=1 kW=7.351597372896507 kvar=1.6197518023605655 Phases=1 yearly=res_kw_9806_pu

New Load.load_p1ulv8246_2 conn=wye bus1=p1ulv8246.2 kV=0.12 Vminpu=0.8 Vmaxpu=1.2 model=1 kW=7.351597372896507 kvar=1.6197518023605655 Phases=1 yearly=res_kw_9806_pu

New Load.load_p1ulv8248_1 conn=wye bus1=p1ulv8248.1 kV=0.12 Vminpu=0.8 Vmaxpu=1.2 model=1 kW=4.361774876940956 kvar=1.1676600318961476 Phases=1 yearly=com_kw_42692_pu

New Load.load_p1ulv8248_2 conn=wye bus1=p1ulv8248.2 kV=0.12 Vminpu=0.8 Vmaxpu=1.2 model=1 kW=4.361774876940956 kvar=1.1676600318961476 Phases=1 yearly=com_kw_42692_pu

New Load.load_p1ulv8249_1 conn=wye bus1=p1ulv8249.1 kV=0.12 Vminpu=0.8 Vmaxpu=1.2 model=1 kW=4.269245576784838 kvar=0.7207107837981154 Phases=1 yearly=res_kw_42648_pu

New Load.load_p1ulv8249_2 conn=wye bus1=p1ulv8249.2 kV=0.12 Vminpu=0.8 Vmaxpu=1.2 model=1 kW=4.269245576784838 kvar=0.7207107837981154 Phases=1 yearly=res_kw_42648_pu

New Load.load_p1ulv8250_1 conn=wye bus1=p1ulv8250.1 kV=0.12 Vminpu=0.8 Vmaxpu=1.2 model=1 kW=8.890299462840934 kvar=1.0379091934836806 Phases=1 yearly=res_kw_33656_pu

New Load.load_p1ulv8250_2 conn=wye bus1=p1ulv8250.2 kV=0.12 Vminpu=0.8 Vmaxpu=1.2 model=1 kW=8.890299462840934 kvar=1.0379091934836806 Phases=1 yearly=res_kw_33656_pu

New Load.load_p1ulv8251_1 conn=wye bus1=p1ulv8251.1 kV=0.12 Vminpu=0.8 Vmaxpu=1.2 model=1 kW=2.891190518317394 kvar=0.87743302889775 Phases=1 yearly=res_kw_32430_pu

New Load.load_p1ulv8251_2 conn=wye bus1=p1ulv8251.2 kV=0.12 Vminpu=0.8 Vmaxpu=1.2 model=1 kW=2.891190518317394 kvar=0.87743302889775 Phases=1 yearly=res_kw_32430_pu

New Load.load_p1ulv8252_1 conn=wye bus1=p1ulv8252.1 kV=0.12 Vminpu=0.8 Vmaxpu=1.2 model=1 kW=6.662249850566722 kvar=1.8275521427834336 Phases=1 yearly=res_kw_127_pu

New Load.load_p1ulv8252_2 conn=wye bus1=p1ulv8252.2 kV=0.12 Vminpu=0.8 Vmaxpu=1.2 model=1 kW=6.662249850566722 kvar=1.8275521427834336 Phases=1 yearly=res_kw_127_pu

New Load.load_p1ulv8253_1 conn=wye bus1=p1ulv8253.1 kV=0.12 Vminpu=0.8 Vmaxpu=1.2 model=1 kW=7.025678287242163 kvar=1.8396185463416517 Phases=1 yearly=res_kw_40878_pu

New Load.load_p1ulv8253_2 conn=wye bus1=p1ulv8253.2 kV=0.12 Vminpu=0.8 Vmaxpu=1.2 model=1 kW=7.025678287242163 kvar=1.8396185463416517 Phases=1 yearly=res_kw_40878_pu

New Load.load_p1ulv8254_1 conn=wye bus1=p1ulv8254.1 kV=0.12 Vminpu=0.8 Vmaxpu=1.2 model=1 kW=8.427498899440819 kvar=2.053922751041008 Phases=1 yearly=res_kw_3835_pu

New Load.load_p1ulv8254_2 conn=wye bus1=p1ulv8254.2 kV=0.12 Vminpu=0.8 Vmaxpu=1.2 model=1 kW=8.427498899440819 kvar=2.053922751041008 Phases=1 yearly=res_kw_3835_pu

New Load.load_p1ulv8257 conn=wye bus1=p1ulv8257.1.2.3 kV=0.48 Vminpu=0.8 Vmaxpu=1.2 model=1 kW=34.57033819390006 kvar=8.703090298253962 Phases=3 yearly=res_kw_24337_pu

New Load.load_p1ulv8879_1 conn=wye bus1=p1ulv8879.1 kV=0.12 Vminpu=0.8 Vmaxpu=1.2 model=1 kW=3.7074306096658614 kvar=1.2076561858976878 Phases=1 yearly=res_kw_29794_pu

New Load.load_p1ulv8879_2 conn=wye bus1=p1ulv8879.2 kV=0.12 Vminpu=0.8 Vmaxpu=1.2 model=1 kW=3.7074306096658614 kvar=1.2076561858976878 Phases=1 yearly=res_kw_29794_pu

New Load.load_p1ulv8881_1 conn=wye bus1=p1ulv8881.1 kV=0.12 Vminpu=0.8 Vmaxpu=1.2 model=1 kW=5.430996814537673 kvar=1.5878724911481856 Phases=1 yearly=res_kw_39130_pu

New Load.load_p1ulv8881_2 conn=wye bus1=p1ulv8881.2 kV=0.12 Vminpu=0.8 Vmaxpu=1.2 model=1 kW=5.430996814537673 kvar=1.5878724911481856 Phases=1 yearly=res_kw_39130_pu

New Load.load_p1ulv8886_1 conn=wye bus1=p1ulv8886.1 kV=0.12 Vminpu=0.8 Vmaxpu=1.2 model=1 kW=7.714480228942065 kvar=1.89495053068442 Phases=1 yearly=res_kw_24814_pu

New Load.load_p1ulv8886_2 conn=wye bus1=p1ulv8886.2 kV=0.12 Vminpu=0.8 Vmaxpu=1.2 model=1 kW=7.714480228942065 kvar=1.89495053068442 Phases=1 yearly=res_kw_24814_pu

New Load.load_p1ulv8888_1 conn=wye bus1=p1ulv8888.1 kV=0.12 Vminpu=0.8 Vmaxpu=1.2 model=1 kW=8.720871394100048 kvar=2.539444764185565 Phases=1 yearly=res_kw_11801_pu

New Load.load_p1ulv8888_2 conn=wye bus1=p1ulv8888.2 kV=0.12 Vminpu=0.8 Vmaxpu=1.2 model=1 kW=8.720871394100048 kvar=2.539444764185565 Phases=1 yearly=res_kw_11801_pu

New Load.load_p1ulv8889_1 conn=wye bus1=p1ulv8889.1 kV=0.12 Vminpu=0.8 Vmaxpu=1.2 model=1 kW=6.762853188192065 kvar=0.21213668714659514 Phases=1 yearly=res_kw_29129_pu

New Load.load_p1ulv8889_2 conn=wye bus1=p1ulv8889.2 kV=0.12 Vminpu=0.8 Vmaxpu=1.2 model=1 kW=6.762853188192065 kvar=0.21213668714659514 Phases=1 yearly=res_kw_29129_pu

New Load.load_p1ulv8890_1 conn=wye bus1=p1ulv8890.1 kV=0.12 Vminpu=0.8 Vmaxpu=1.2 model=1 kW=5.262356427925992 kvar=1.572272268430262 Phases=1 yearly=res_kw_17316_pu

New Load.load_p1ulv8890_2 conn=wye bus1=p1ulv8890.2 kV=0.12 Vminpu=0.8 Vmaxpu=1.2 model=1 kW=5.262356427925992 kvar=1.572272268430262 Phases=1 yearly=res_kw_17316_pu

New Load.load_p1ulv8891_1 conn=wye bus1=p1ulv8891.1 kV=0.12 Vminpu=0.8 Vmaxpu=1.2 model=1 kW=5.6169074043914575 kvar=1.0183017372764251 Phases=1 yearly=res_kw_15299_pu

New Load.load_p1ulv8891_2 conn=wye bus1=p1ulv8891.2 kV=0.12 Vminpu=0.8 Vmaxpu=1.2 model=1 kW=5.6169074043914575 kvar=1.0183017372764251 Phases=1 yearly=res_kw_15299_pu

New Load.load_p1ulv8892_1 conn=wye bus1=p1ulv8892.1 kV=0.12 Vminpu=0.8 Vmaxpu=1.2 model=1 kW=7.47211462160751 kvar=0.5798347120225763 Phases=1 yearly=res_kw_22226_pu

New Load.load_p1ulv8892_2 conn=wye bus1=p1ulv8892.2 kV=0.12 Vminpu=0.8 Vmaxpu=1.2 model=1 kW=7.47211462160751 kvar=0.5798347120225763 Phases=1 yearly=res_kw_22226_pu

New Load.load_p1ulv8893_1 conn=wye bus1=p1ulv8893.1 kV=0.12 Vminpu=0.8 Vmaxpu=1.2 model=1 kW=6.963556149984081 kvar=1.643034731369809 Phases=1 yearly=res_kw_14299_pu

New Load.load_p1ulv8893_2 conn=wye bus1=p1ulv8893.2 kV=0.12 Vminpu=0.8 Vmaxpu=1.2 model=1 kW=6.963556149984081 kvar=1.643034731369809 Phases=1 yearly=res_kw_14299_pu

New Load.load_p1ulv8900_1 conn=wye bus1=p1ulv8900.1 kV=0.12 Vminpu=0.8 Vmaxpu=1.2 model=1 kW=3.1896674138406342 kvar=0.5198196344628838 Phases=1 yearly=res_kw_3541_pu

New Load.load_p1ulv8900_2 conn=wye bus1=p1ulv8900.2 kV=0.12 Vminpu=0.8 Vmaxpu=1.2 model=1 kW=3.1896674138406342 kvar=0.5198196344628838 Phases=1 yearly=res_kw_3541_pu

New Load.load_p1ulv9511_1 conn=wye bus1=p1ulv9511.1 kV=0.12 Vminpu=0.8 Vmaxpu=1.2 model=1 kW=3.502514600219692 kvar=1.127317670777146 Phases=1 yearly=res_kw_39193_pu

New Load.load_p1ulv9511_2 conn=wye bus1=p1ulv9511.2 kV=0.12 Vminpu=0.8 Vmaxpu=1.2 model=1 kW=3.502514600219692 kvar=1.127317670777146 Phases=1 yearly=res_kw_39193_pu

New Load.load_p1ulv9512_1 conn=wye bus1=p1ulv9512.1 kV=0.12 Vminpu=0.8 Vmaxpu=1.2 model=1 kW=4.840560311558584 kvar=1.4249108881456032 Phases=1 yearly=res_kw_15352_pu

New Load.load_p1ulv9512_2 conn=wye bus1=p1ulv9512.2 kV=0.12 Vminpu=0.8 Vmaxpu=1.2 model=1 kW=4.840560311558584 kvar=1.4249108881456032 Phases=1 yearly=res_kw_15352_pu

New Load.load_p1ulv9514_1 conn=wye bus1=p1ulv9514.1 kV=0.12 Vminpu=0.8 Vmaxpu=1.2 model=1 kW=3.4304055227632637 kvar=1.2627948271915204 Phases=1 yearly=res_kw_888_pu

New Load.load_p1ulv9514_2 conn=wye bus1=p1ulv9514.2 kV=0.12 Vminpu=0.8 Vmaxpu=1.2 model=1 kW=3.4304055227632637 kvar=1.2627948271915204 Phases=1 yearly=res_kw_888_pu

New Load.load_p1ulv9515_1 conn=wye bus1=p1ulv9515.1 kV=0.12 Vminpu=0.8 Vmaxpu=1.2 model=1 kW=6.6458713977329005 kvar=1.7077146550044826 Phases=1 yearly=res_kw_36674_pu

New Load.load_p1ulv9515_2 conn=wye bus1=p1ulv9515.2 kV=0.12 Vminpu=0.8 Vmaxpu=1.2 model=1 kW=6.6458713977329005 kvar=1.7077146550044826 Phases=1 yearly=res_kw_36674_pu

New Load.load_p1ulv9516_1 conn=wye bus1=p1ulv9516.1 kV=0.12 Vminpu=0.8 Vmaxpu=1.2 model=1 kW=7.1855622581226175 kvar=0.5422229540555967 Phases=1 yearly=res_kw_33490_pu

New Load.load_p1ulv9516_2 conn=wye bus1=p1ulv9516.2 kV=0.12 Vminpu=0.8 Vmaxpu=1.2 model=1 kW=7.1855622581226175 kvar=0.5422229540555967 Phases=1 yearly=res_kw_33490_pu

New Load.load_p1ulv9517_1 conn=wye bus1=p1ulv9517.1 kV=0.12 Vminpu=0.8 Vmaxpu=1.2 model=1 kW=6.906518788578483 kvar=0.29232618805527877 Phases=1 yearly=res_kw_11700_pu

New Load.load_p1ulv9517_2 conn=wye bus1=p1ulv9517.2 kV=0.12 Vminpu=0.8 Vmaxpu=1.2 model=1 kW=6.906518788578483 kvar=0.29232618805527877 Phases=1 yearly=res_kw_11700_pu

New Load.load_p1ulv10104_1 conn=wye bus1=p1ulv10104.1 kV=0.12 Vminpu=0.8 Vmaxpu=1.2 model=1 kW=7.47211462160751 kvar=0.5798347120225763 Phases=1 yearly=res_kw_22226_pu

New Load.load_p1ulv10104_2 conn=wye bus1=p1ulv10104.2 kV=0.12 Vminpu=0.8 Vmaxpu=1.2 model=1 kW=7.47211462160751 kvar=0.5798347120225763 Phases=1 yearly=res_kw_22226_pu

New Load.load_p1ulv10105_1 conn=wye bus1=p1ulv10105.1 kV=0.12 Vminpu=0.8 Vmaxpu=1.2 model=1 kW=6.523692499771093 kvar=1.7131245007196503 Phases=1 yearly=res_kw_20815_pu

New Load.load_p1ulv10105_2 conn=wye bus1=p1ulv10105.2 kV=0.12 Vminpu=0.8 Vmaxpu=1.2 model=1 kW=6.523692499771093 kvar=1.7131245007196503 Phases=1 yearly=res_kw_20815_pu

New Load.load_p1ulv10107_1 conn=wye bus1=p1ulv10107.1 kV=0.12 Vminpu=0.8 Vmaxpu=1.2 model=1 kW=5.262356427925992 kvar=1.572272268430262 Phases=1 yearly=res_kw_17316_pu

New Load.load_p1ulv10107_2 conn=wye bus1=p1ulv10107.2 kV=0.12 Vminpu=0.8 Vmaxpu=1.2 model=1 kW=5.262356427925992 kvar=1.572272268430262 Phases=1 yearly=res_kw_17316_pu

New Load.load_p1ulv10113_1 conn=wye bus1=p1ulv10113.1 kV=0.12 Vminpu=0.8 Vmaxpu=1.2 model=1 kW=10.241150305196022 kvar=3.0339258418386112 Phases=1 yearly=res_kw_13995_pu

...