previous-work/simulators/rz/research/evidence/research-20260925/scratch/smartds-analysis/peak_line_overloads.csv
Loading (p.u.),Name,Bus1,Bus2
1.028060723542986,Line.padswitch(r:p1udt16009-p1udt6304)p1u_233627,p1udt16009.1.2.3,p1udt16009-p1udt6304x.1.2.3
1.0280607264208197,Line.l(r:p1udt16009-p1udt6304),p1udt16009-p1udt6304x.1.2.3,p1udt16009-p1udt6304xx.1.2.3
1.0280788218666763,Line.padswitch(r:p1udt16009-p1udt6304)p1u_233628,p1udt16009-p1udt6304xx.1.2.3,p1udt6304.1.2.3
1.0306358617666083,Line.l(r:p1udt24782lv-p1ulv61950),p1udt24782lv.1.2,p1ulv61950.1.2
1.0350410680720425,Line.l(r:p1udt11369-p1udt20025)p1ud3,p1udt11369-p1udt20025x.1.2.3,p1udt11369-p1udt20025xx.1.2.3
1.0408934005442807,Line.padswitch(r:p1udt14229-p1udt1558)p1u_233633,p1udt1558.1.2.3,p1udt14229-p1udt1558xx.1.2.3
1.0408934034346313,Line.l(r:p1udt14229-p1udt1558),p1udt14229-p1udt1558xx.1.2.3,p1udt14229-p1udt1558x.1.2.3
1.040907318430176,Line.padswitch(r:p1udt14229-p1udt1558)p1u_233634,p1udt14229-p1udt1558x.1.2.3,p1udt14229.1.2.3
1.0409073213167355,Line.padswitch(r:p1udt14229-p1udt311)p1u_233631,p1udt14229.1.2.3,p1udt14229-p1udt311x.1.2.3
1.0409073242029245,Line.l(r:p1udt14229-p1udt311),p1udt14229-p1udt311x.1.2.3,p1udt14229-p1udt311xx.1.2.3
1.0409212249541429,Line.padswitch(r:p1udt14229-p1udt311)p1u_233632,p1udt14229-p1udt311xx.1.2.3,p1udt311.1.2.3
1.04092123072016,Line.l(r:p1udt16009-p1udt311),p1udt16009-p1udt311xx.1.2.3,p1udt16009-p1udt311x.1.2.3
1.0409351122642323,Line.padswitch(r:p1udt16009-p1udt311)p1u_233630,p1udt16009-p1udt311x.1.2.3,p1udt16009.1.2.3
1.0478156010957485,Line.l(r:p1udt11369-p1udt2142),p1udt11369-p1udt2142xx.1.2.3,p1udt11369-p1udt2142x.1.2.3
1.0514468699217006,Line.l(r:p1udt2141-p1udt326),p1udt2141.1.2.3,p1udt326.1.2.3
1.2870979733540167,Line.sb2_p1uhs0_1247_362,sb2_p1uhs0_1247_bus_2_2.1.2.3,sb2_p1uhs0_1247_node_2_11.1.2.3
1.6756337244108515,Line.l(r:p1udt23483lv-p1ulv54657),p1udt23483lv.1.2,p1ulv54657.1.2
